#======================================================================

# CRYSTAL DATA

#----------------------------------------------------------------------

data_VESTA_phase_1


_chemical_name_common                  'Ge2 Cl6'
_cell_length_a                         5.91437
_cell_length_b                         7.19642
_cell_length_c                         8.36143
_cell_angle_alpha                      90
_cell_angle_beta                       107.59318
_cell_angle_gamma                      90
_space_group_name_H-M_alt              'P 1'
_space_group_IT_number                 1

loop_
_space_group_symop_operation_xyz
   'x, y, z'

loop_
   _atom_site_label
   _atom_site_occupancy
   _atom_site_fract_x
   _atom_site_fract_y
   _atom_site_fract_z
   _atom_site_adp_type
   _atom_site_B_iso_or_equiv
   _atom_site_type_symbol
   Ge0        1.0     0.510337      0.750000      0.891894     Biso  1.000000 Ge
   Ge1        1.0     0.456659      0.250000      0.446263     Biso  1.000000 Ge
   Cl2        1.0     0.912641      0.750000      0.901359     Biso  1.000000 Cl
   Cl3        1.0     0.858963      0.250000      0.455728     Biso  1.000000 Cl
   Cl4        1.0     0.345171      0.007524      0.249633     Biso  1.000000 Cl
   Cl5        1.0     0.398849      0.507524      0.695264     Biso  1.000000 Cl
   Cl6        1.0     0.345171      0.492476      0.249633     Biso  1.000000 Cl
   Cl7        1.0     0.398849      0.992476      0.695264     Biso  1.000000 Cl
